LM2576-v2
*SPICE Netlist generated by Advanced Sim server on 3/23/2018 08:03:48

*Schematic Netlist:
XS1 5V_IN 5V 3V3_IN 3V3 dpsw2 PARAMS: STATE1=0 STATE2=0 RON=1m ROFF=100E6

.SAVE 0 3V3 3V3_IN 5V 5V_IN

*PLOT TRAN -1 1 A=3V3
*PLOT OP -1 1 A=3V3

*Selected Circuit Analyses:
.TRAN 2E-8 5E-6 0 2E-8
.OP

*Models and Subcircuits:
.END
